&share
 wrf_core             = 'ARW'
 max_dom              = 2
 start_date           = '2026-06-01_00:00:00', '2026-06-01_00:00:00'
 end_date             = '2026-06-13_00:00:00', '2026-06-13_00:00:00'
 interval_seconds     = 21600
 io_form_geogrid      = 2
 debug_level          = 0
/

&geogrid
 parent_id            = 1, 1
 parent_grid_ratio    = 1, 3
 i_parent_start       = 1, 117
 j_parent_start       = 1, 80
 e_we                 = 301, 403
 e_sn                 = 301, 403
 geog_data_res        = 'lowres', 'lowres'
 dx                   = 9000
 dy                   = 9000
 map_proj             = 'lambert'
 ref_lat              = -37.184
 ref_lon              = -75.865
 truelat1             = -33.008
 truelat2             = -33.008
 pole_lat             = 90
 pole_lon             = 0
 stand_lon            = -74.687
 geog_data_path       = '/home/courses/student01/data/WPS_GEOG_LOW_RES/'
 opt_geogrid_tbl_path = './geogrid/'
/

&ungrib
 out_format           = 'WPS'
 prefix               = 'FILE'
/

&metgrid
 fg_name              = 'FILE'
 io_form_metgrid      = 2
 opt_metgrid_tbl_path = './metgrid'
/
